  10
  -229.50534145610769     
 C    -0.95093427     1.20555722    -0.00002284
 C     0.94905539     1.19927254     0.00017096
 C    -1.40327139     0.00187908     0.00008484
 C     1.39024388    -0.00929748    -0.00011632
 H     1.31568938     2.19989118     0.00030955
 H    -1.30603621     2.21012504     0.00019198
 C    -0.69022465    -1.24800275    -0.00019387
 C     0.69189344    -1.24023555    -0.00025608
 H    -1.21446959    -2.18480154    -0.00003326
 H     1.21805401    -2.17614057    -0.00013499
