  10
  -154.91346198903216     
 C    -2.83221780     1.70598318     0.00152353
 C    -1.83174196     0.84160622    -0.01856285
 H    -3.85322786     1.37022732    -0.00727437
 H    -2.68116824     2.77053131     0.02722534
 C    -0.38436825     1.14933750    -0.01018573
 H    -2.06990549    -0.20905700    -0.04398492
 C     0.17763484     2.34591871     0.01894722
 H     0.26089551     0.28650254    -0.03047719
 H    -0.39370738     3.25687709     0.04044538
 H     1.24695663     2.45459314     0.02236359
