  16
  -233.01965482982513     
 C    -4.12343194     1.53724630     0.14003441
 C    -5.41505629     0.75966990     0.07405926
 C    -2.92768211     0.69291125    -0.30945972
 H    -3.96824083     1.89233761     1.15844113
 H    -4.20359348     2.42921587    -0.47666353
 C    -5.47333051    -0.55358862    -0.05653984
 H    -6.32975223     1.32645562     0.13930112
 C    -4.25551719    -1.44151507    -0.13262414
 H    -6.43474085    -1.03787562    -0.11422446
 C    -2.98668948    -0.70555371     0.30692361
 H    -4.14029670    -1.80850908    -1.15211711
 H    -4.40869727    -2.32321671     0.48502480
 H    -1.99902996     1.18893176    -0.04223063
 H    -2.93749009     0.60557746    -1.39380100
 H    -2.10734266    -1.28107749     0.03239853
 H    -2.98005842    -0.61807948     1.39127757
