  10
  -154.91965404226278     
 C    -2.40625716     0.95096595     0.00253058
 C    -1.39396167     0.10006378    -0.01693962
 H    -3.42674810     0.61471218    -0.02378411
 H    -2.25101342     2.01545520     0.04551881
 C     0.01791796     0.49931310     0.01691595
 H    -1.58991308    -0.95919275    -0.06025333
 C     1.03021334    -0.35158941    -0.00254475
 H     0.21386915     1.55856897     0.06024660
 H     0.87496796    -1.41608373    -0.04540138
 H     2.05070501    -0.01533329     0.02371125
