   6
  -77.855855500214616     
 C    -0.03175599     0.02928250    -0.60302522
 C    -0.24440721     0.03138213     0.77227609
 H     0.63431079     0.71573397    -1.14449771
 H    -0.40268420    -0.78216725    -1.23420166
 H     0.92126565    -0.10956786     0.72718001
 H    -0.24650881     0.97139306     1.33190295
