  14
  -231.80826653839875     
 C    -7.02297258     2.33289730    -0.01663605
 C    -5.84736427     2.93632532     0.05832789
 H    -7.94390965     2.88153731     0.05944191
 H    -7.10622281     1.26879312    -0.15687748
 C    -4.56015184     2.24654473    -0.03788024
 H    -5.80845689     4.00448473     0.19919626
 C    -3.38157087     2.85639546     0.03791544
 H    -4.59650730     1.17778373    -0.17883712
 C    -2.09435824     2.16661672    -0.05830243
 H    -3.34521583     3.92515966     0.17884799
 C    -0.91875040     2.77004773     0.01664521
 H    -2.13326486     1.09845551    -0.19915731
 H    -0.83550198     3.83418314     0.15665056
 H     0.00218751     2.22139553    -0.05933464
