  10
  -229.53800874887909     
 C     1.21678328    -0.72205777     0.00000000
 C    -1.21678328    -0.72205777     0.00000000
 C     1.21678328     0.72205777     0.00000000
 C    -1.21678328     0.72205777     0.00000000
 C     0.00000000    -1.36430413     0.00000000
 C     0.00000000     1.36430413     0.00000000
 H     2.15428172     1.24554454     0.00000000
 H    -2.15428172     1.24554454     0.00000000
 H     2.15428172    -1.24554454     0.00000000
 H    -2.15428172    -1.24554454     0.00000000
