  10
  -229.27089982441305     
 C     1.18567042    -0.74438572     0.00000000
 C    -1.18567042    -0.74438572     0.00000000
 C     1.18567042     0.74438572     0.00000000
 C    -1.18567042     0.74438572     0.00000000
 C     0.00000000    -1.34186467     0.00000000
 C     0.00000000     1.34186467     0.00000000
 H     2.16428688     1.18224664     0.00000000
 H    -2.16428688     1.18224664     0.00000000
 H     2.16428688    -1.18224664     0.00000000
 H    -2.16428688    -1.18224664     0.00000000
