  10
  -229.57428960198047     
 C    -2.22765455     1.06603366     0.00000000
 C     2.22765455     1.06603366     0.00000000
 C    -1.50365500     0.09536518     0.00000000
 C     1.50365500     0.09536518     0.00000000
 H     2.84026088     1.92611085     0.00000000
 H    -2.84026088     1.92611085     0.00000000
 C    -0.68327359    -1.08108753     0.00000000
 C     0.68327359    -1.08108753     0.00000000
 H    -1.19289366    -2.02729858     0.00000000
 H     1.19289366    -2.02729858     0.00000000
