  10
  -229.38262544801717     
 C    -2.20824230     1.05110525     0.00000000
 C     2.20824230     1.05110525     0.00000000
 C    -1.49053185     0.10429648     0.00000000
 C     1.49053185     0.10429648     0.00000000
 H     2.83528975     1.90186130     0.00000000
 H    -2.83528975     1.90186130     0.00000000
 C    -0.66422916    -1.06773300     0.00000000
 C     0.66422916    -1.06773300     0.00000000
 H    -1.18122020    -2.01040645     0.00000000
 H     1.18122020    -2.01040645     0.00000000
