  10
  -229.27063298826027     
 C     0.79620437     1.18302262     0.00000000
 C    -0.79620437     1.18302262     0.00000000
 C     1.34362438     0.00990155     0.00000000
 C    -1.34362438     0.00990155     0.00000000
 H    -1.17731607     2.18271563     0.00000000
 H     1.17731607     2.18271563     0.00000000
 C     0.71537694    -1.19498676     0.00000000
 C    -0.71537694    -1.19498676     0.00000000
 H     1.18846301    -2.15793100     0.00000000
 H    -1.18846301    -2.15793100     0.00000000
