  10
  -229.50902959049731     
 C     0.96170313     1.20940119     0.00000000
 C    -0.96170313     1.20940119     0.00000000
 C     1.39325997     0.00230710     0.00000000
 C    -1.39325997     0.00230710     0.00000000
 H    -1.31266376     2.21500249     0.00000000
 H     1.31266376     2.21500249     0.00000000
 C     0.70242313    -1.23222326     0.00000000
 C    -0.70242313    -1.23222326     0.00000000
 H     1.22087610    -2.17176534     0.00000000
 H    -1.22087610    -2.17176534     0.00000000
